/*--------------------------------*- C++ -*----------------------------------*\
  =========                 |
  \\      /  F ield         | OpenFOAM: The Open Source CFD Toolbox
   \\    /   O peration     | Website:  https://openfoam.org
    \\  /    A nd           | Version:  7
     \\/     M anipulation  |
\*---------------------------------------------------------------------------*/
FoamFile
{
    version     2.0;
    format      ascii;
    class       volScalarField;
    object      Cw;
}
// * * * * * * * * * * * * * * * * * * * * * * * * * * * * * * * * * * * * * //

dimensions      [1 -3 0 0 0 0 0];

internalField   uniform 0;

boundaryField
{
    front
    {
        type    empty;
    }

    back
    {
        type    empty;
    }

    right
    {
  	    type	cyclicAMI;
    }

    left
    {
        type	cyclicAMI;
    }

    top
    {
/*        type            inletOutlet;
        phi             phi;
        inletValue      uniform 0.00172;
        value           $internalField;
*/        
    	type            uniformInletOutlet;
        phi             phi;
        uniformInletValue	table 
        				(
							(0 0)
							(3456 0.000431034482758621)
							(86400 0.000172413793103448)
							(172800 0.000172413793103448)
							(259200 0.000172413793103448)
							(262656 0.000603448275862069)
							(345600 0.000241379310344828)
							(518400 0.000241379310344828)
							(521856 0.000672413793103448)
							(604800 0.000268965517241379)
							(777600 0.000268965517241379)
							(781056 0.0007)
							(864000 0.00028)
							(1123200 0.00028)
        				);
        value           $internalField;
	}
    
    bottom
    {
        type            zeroGradient;
    }
}

// ************************************************************************* //
