/*--------------------------------*- C++ -*----------------------------------*\
  =========                 |
  \\      /  F ield         | OpenFOAM: The Open Source CFD Toolbox
   \\    /   O peration     | Website:  https://openfoam.org
    \\  /    A nd           | Version:  7
     \\/     M anipulation  |
\*---------------------------------------------------------------------------*/
FoamFile
{
    version         2;
    format          ascii;
    class           dictionary;
    location        "system";
    object          controlDict;
}

application     biocloggingFoam;

startFrom       latestTime;

startTime       0;

stopAt          endTime;

endTime         159.059;

writeInterval   20;

deltaT          0.0485425;

writeControl    runTime;

purgeWrite      0;

writeFormat     ascii;

writePrecision  6;

writeCompression off;

timeFormat      fixed;

timePrecision   8;

runTimeModifiable false;

adjustTimeStep  no;

maxCo           1;

debug           1;

functions
{
    boundaryProbes
    {
        fields          ( h );
        points          ( ( 0 0 0 ) ( 0.00303742 0.00049461 0 ) ( 0.00606345 0.0010549 0 ) ( 0.00907973 0.00166558 0 ) ( 0.0120886 0.0023119 0 ) ( 0.0150928 0.00297956 0 ) ( 0.0180954 0.00365453 0 ) ( 0.0210994 0.00432287 0 ) ( 0.024108 0.00497055 0 ) ( 0.0271239 0.00558329 0 ) ( 0.0301494 0.00614636 0 ) ( 0.0331863 0.00664451 0 ) ( 0.0362352 0.00706185 0 ) ( 0.0392958 0.00738198 0 ) ( 0.0423662 0.0075881 0 ) ( 0.0454426 0.00766339 0 ) ( 0.0485189 0.00759163 0 ) ( 0.0515861 0.0073478 0 ) ( 0.0546275 0.00688169 0 ) ( 0.0576328 0.00622108 0 ) ( 0.0605992 0.00540276 0 ) ( 0.0635287 0.00446021 0 ) ( 0.0664261 0.00342328 0 ) ( 0.0692984 0.00231853 0 ) ( 0.0721536 0.00117 0 ) ( 0.075 0 0 ) ( 0.0778464 -0.00117 0 ) ( 0.0807016 -0.00231853 0 ) ( 0.0835739 -0.00342328 0 ) ( 0.0864713 -0.00446021 0 ) ( 0.0894008 -0.00540276 0 ) ( 0.0923672 -0.00622108 0 ) ( 0.0953725 -0.00688169 0 ) ( 0.0984139 -0.0073478 0 ) ( 0.101481 -0.00759163 0 ) ( 0.104557 -0.00766339 0 ) ( 0.107634 -0.0075881 0 ) ( 0.110704 -0.00738198 0 ) ( 0.113765 -0.00706185 0 ) ( 0.116814 -0.00664451 0 ) ( 0.119851 -0.00614636 0 ) ( 0.122876 -0.00558329 0 ) ( 0.125892 -0.00497055 0 ) ( 0.128901 -0.00432287 0 ) ( 0.131905 -0.00365453 0 ) ( 0.134907 -0.00297956 0 ) ( 0.137911 -0.0023119 0 ) ( 0.14092 -0.00166558 0 ) ( 0.143937 -0.0010549 0 ) ( 0.146963 -0.00049461 0 ) ( 0.15 0 0 ) );
        maxDistance     0.01;
        interpolationScheme cell;
        setFormat       raw;
        setConfig
        {
            type            lineUniform;
            axis            distance;
            nPoints         100;
        }
        patches         ( "top" );
        type            sets;
        libs            ( "libsampling.so" );
        executeControl  timeStep;
        writeControl    timeStep;
        sets            ( points { type boundaryPoints ; axis xyz ; points ( ( 0 0 0 ) ( 0.00303742 0.00049461 0 ) ( 0.00606345 0.0010549 0 ) ( 0.00907973 0.00166558 0 ) ( 0.0120886 0.0023119 0 ) ( 0.0150928 0.00297956 0 ) ( 0.0180954 0.00365453 0 ) ( 0.0210994 0.00432287 0 ) ( 0.024108 0.00497055 0 ) ( 0.0271239 0.00558329 0 ) ( 0.0301494 0.00614636 0 ) ( 0.0331863 0.00664451 0 ) ( 0.0362352 0.00706185 0 ) ( 0.0392958 0.00738198 0 ) ( 0.0423662 0.0075881 0 ) ( 0.0454426 0.00766339 0 ) ( 0.0485189 0.00759163 0 ) ( 0.0515861 0.0073478 0 ) ( 0.0546275 0.00688169 0 ) ( 0.0576328 0.00622108 0 ) ( 0.0605992 0.00540276 0 ) ( 0.0635287 0.00446021 0 ) ( 0.0664261 0.00342328 0 ) ( 0.0692984 0.00231853 0 ) ( 0.0721536 0.00117 0 ) ( 0.075 0 0 ) ( 0.0778464 -0.00117 0 ) ( 0.0807016 -0.00231853 0 ) ( 0.0835739 -0.00342328 0 ) ( 0.0864713 -0.00446021 0 ) ( 0.0894008 -0.00540276 0 ) ( 0.0923672 -0.00622108 0 ) ( 0.0953725 -0.00688169 0 ) ( 0.0984139 -0.0073478 0 ) ( 0.101481 -0.00759163 0 ) ( 0.104557 -0.00766339 0 ) ( 0.107634 -0.0075881 0 ) ( 0.110704 -0.00738198 0 ) ( 0.113765 -0.00706185 0 ) ( 0.116814 -0.00664451 0 ) ( 0.119851 -0.00614636 0 ) ( 0.122876 -0.00558329 0 ) ( 0.125892 -0.00497055 0 ) ( 0.128901 -0.00432287 0 ) ( 0.131905 -0.00365453 0 ) ( 0.134907 -0.00297956 0 ) ( 0.137911 -0.0023119 0 ) ( 0.14092 -0.00166558 0 ) ( 0.143937 -0.0010549 0 ) ( 0.146963 -0.00049461 0 ) ( 0.15 0 0 ) ) ; maxDistance 0.01 ; patches ( "top" ) ; } );
        writeInterval   1;
    }
    fieldAverageOverTime
    {
        type            fieldAverage;
        libs            ( "libfieldFunctionObjects.so" );
        writeControl    writeTime;
        fields          ( h { mean on ; prime2Mean on ; base time ; } );
    }
}


// ************************************************************************* //
