/*--------------------------------*- C++ -*----------------------------------*\
  =========                 |
  \\      /  F ield         | OpenFOAM: The Open Source CFD Toolbox
   \\    /   O peration     | Website:  https://openfoam.org
    \\  /    A nd           | Version:  7
     \\/     M anipulation  |
\*---------------------------------------------------------------------------*/
FoamFile
{
    version     2.0;
    format      ascii;
    class       dictionary;
    location    "constant";
    object      transportProperties;
}
// * * * * * * * * * * * * * * * * * * * * * * * * * * * * * * * * * * * * * //
// [kg m s K mol * *]

// Diameters
ds        ds        [0 1 0 0 0 0 0]     4.4E-4;   
dp        dp        [0 1 0 0 0 0 0]     1.0E-7;  

// Densities
rho       rho       [1 -3 0 0 0 0 0]    1000.0;
rho_clay  rho_clay  [1 -3 0 0 0 0 0]    1050.0;
rho_sand  rho_sand  [1 -3 0 0 0 0 0]    1550.0;

//Other physical stuff
g         g         [0 1 -2 0 0 0 0]    9.81;
mu        mu        [1 -1 -1 0 0 0 0]   0.001;
Slope     Slope     [0 0 0 0 0 0 0]     (0.0 0.0 0.0);

//Dispersion
DispTensor DispTensor [0 1 0 0 0 0 0]
  (1.0E-2 0.00 0.00 0.00 1.0E-2 0.00 0.00 0.00 1.0E-2);

//Filtration & clogging
alpha     alpha     [0 0 0 0 0 0 0]     8.352823E-3;
thetaMin  thetaMin  [0 0 0 0 0 0 0]     0.10;

//Chemical parameters
Hamaker   Hamaker   [1 2 -2 0 0 0 0]    1.0E-20;
kBoltz    kBoltz    [1 2 -2 -1 0 0 0]   1.380649E-23;
Temp      Temp      [0 0 0 1 0 0 0]     298.0;
kdet      kdet      [0 0 -1 0 0 0 0]    1.0E-6;



// ************************************************************************* //
