/*--------------------------------*- C++ -*----------------------------------*\
  =========                 |
  \\      /  F ield         | OpenFOAM: The Open Source CFD Toolbox
   \\    /   O peration     | Website:  https://openfoam.org
    \\  /    A nd           | Version:  7
     \\/     M anipulation  |
\*---------------------------------------------------------------------------*/
FoamFile
{
    version     2.0;
    format      ascii;
    class       volScalarField;
    location    "0";
    object      k;
}
// * * * * * * * * * * * * * * * * * * * * * * * * * * * * * * * * * * * * * //

dimensions      [0 2 -2 0 0 0 0];

internalField   uniform 8.44E-5;

boundaryField
{
    front
    {
        type    kqRWallFunction;
        value   uniform 8.44E-5; 
    }

    back
    {
        type    kqRWallFunction;
        value   uniform 8.44E-5; 
    }

    right
    {
        type    cyclicAMI;
    }

    left
    {
        type    cyclicAMI;
    }

    top
    {
        type    zeroGradient;
    }

    bottom
    {
        type    kqRWallFunction;
        value	uniform 8.44E-5;
    }
}


// ************************************************************************* //
