/*--------------------------------*- C++ -*----------------------------------*\
  =========                 |
  \\      /  F ield         | OpenFOAM: The Open Source CFD Toolbox
   \\    /   O peration     | Website:  https://openfoam.org
    \\  /    A nd           | Version:  7
     \\/     M anipulation  |
\*---------------------------------------------------------------------------*/
FoamFile
{
    version     2.0;
    format      ascii;
    class       dictionary;
    object      blockMeshDict;
}
// * * * * * * * * * * * * * * * * * * * * * * * * * * * * * * * * * * * * * //

convertToMeters 1.0;

lenght   1.00;
diameter 0.05;

deltaLenght 0.01;
deltaDiam   0.05;

LCells #calc "round($lenght/$deltaLenght)";
TCells #calc "round($diameter/$deltaDiam)";

vertices
(
    (0 0 0)
    (0 $diameter 0)
    (0 $diameter $lenght)
    (0 0 $lenght)
    ($diameter 0 0)
    ($diameter $diameter 0)
    ($diameter $diameter $lenght)
    ($diameter 0 $lenght)
);


blocks
(
    hex (0 4 5 1 3 7 6 2) ($TCells $TCells $LCells) simpleGrading (1 1 1)
);

edges
(
);

boundary
(
    top
    {
        type patch;
        faces
        (
            (3 7 6 2)
        );
    }
    left
    {
        type empty;
        faces
        (
            (0 4 7 3)
        );
    }
    right
    {
        type empty;
        faces
        (
            (2 6 5 1)
        );
    }

    front
    {
        type empty;
        faces
        (
            (4 5 6 7)
        );
    }
    back
    {
        type empty;
        faces
        (
            (0 3 2 1)
        );
    }
    bottom
    {
        type patch;
        faces
        (
            (0 1 5 4)
        );
    }

);

mergePatchPairs
(
);

// ************************************************************************* //
